<?xml version="1.0" encoding="UTF-8"?>

<!-- generated on 2023-11-09 14:24:38 by Eclipse SUMO netedit Version 1.19.0
<configuration xmlns:xsi="http://www.w3.org/2001/XMLSchema-instance" xsi:noNamespaceSchemaLocation="http://sumo.dlr.de/xsd/neteditConfiguration.xsd">

    <input>
        <sumo-net-file value="C:\Users\PC\Desktop\algorithm\highway\input_net.net.xml"/>
    </input>

    <output>
        <output-file value="C:\Users\PC\Desktop\algorithm\highway\input_net.net.xml"/>
    </output>

    <processing>
        <geometry.min-radius.fix.railways value="false"/>
        <geometry.max-grade.fix value="false"/>
        <offset.disable-normalization value="true"/>
        <lefthand value="0"/>
    </processing>

    <junctions>
        <no-internal-links value="true"/>
        <no-turnarounds value="true"/>
        <junctions.corner-detail value="5"/>
        <junctions.limit-turn-speed value="5.50"/>
        <rectangular-lane-cut value="0"/>
    </junctions>

    <pedestrian>
        <walkingareas value="0"/>
    </pedestrian>

</configuration>
-->

<net version="1.19" junctionCornerDetail="5" limitTurnSpeed="5.50" xmlns:xsi="http://www.w3.org/2001/XMLSchema-instance" xsi:noNamespaceSchemaLocation="http://sumo.dlr.de/xsd/net_file.xsd">

    <location netOffset="0.00,0.00" convBoundary="0.00,0.00,1000.00,0.00" origBoundary="-10000000000.00,-10000000000.00,10000000000.00,10000000000.00" projParameter="!"/>

    <edge id="E0" from="J0" to="J1" priority="-1" length="1000.00">
        <lane id="E0_0" index="0" speed="27.70" length="1000.00" width="4.00" shape="0.00,-14.00 1000.00,-14.00"/>
        <lane id="E0_1" index="1" speed="27.70" length="1000.00" width="4.00" shape="0.00,-10.00 1000.00,-10.00"/>
        <lane id="E0_2" index="2" speed="33.30" length="1000.00" width="4.00" shape="0.00,-6.00 1000.00,-6.00"/>
        <lane id="E0_3" index="3" speed="33.30" length="1000.00" width="4.00" shape="0.00,-2.00 1000.00,-2.00"/>
    </edge>

    <junction id="J0" type="dead_end" x="0.00" y="0.00" incLanes="" intLanes="" shape="0.00,0.00 0.00,-16.00"/>
    <junction id="J1" type="dead_end" x="1000.00" y="0.00" incLanes="E0_0 E0_1 E0_2 E0_3" intLanes="" shape="1000.00,-16.00 1000.00,0.00"/>

</net>
