<configuration>
    <input>
        <net-file value="input_net.net.xml"/>
        <route-files value="vehicles.rou.xml"/>
    </input>
	<time>
		<step-length value="0.5"/>
   </time>
</configuration>

