<routes>
    <vType id="type1" accel="1.5" decel="4" sigma="0.5" length="5" maxSpeed="33.3"/>
	<flow id="type0" color="1,0,0"  begin="0" end= "720000000" vehsPerHour='2000' type="type1" departLane="random" departSpeed="max">
		<route id="route0" edges="E0"/>
	</flow>
</routes>